
     RDKit          3D

 73 77  0  0  0  0  0  0  0  0999 V2000
   -5.5609    3.5501    1.3911 C   0  0  0  0  0  0  0  0  0  0  0  0
   -6.4173    2.3671    1.9062 C   0  0  0  0  0  0  0  0  0  0  0  0
   -7.8898    2.6718    1.5472 C   0  0  0  0  0  0  0  0  0  0  0  0
   -6.2661    2.3054    3.4406 C   0  0  0  0  0  0  0  0  0  0  0  0
   -6.0028    1.0094    1.2989 C   0  0  0  0  0  0  0  0  0  0  0  0
   -4.8780    0.8594    0.4503 C   0  0  0  0  0  0  0  0  0  0  0  0
   -4.5374   -0.3889   -0.0942 C   0  0  0  0  0  0  0  0  0  0  0  0
   -5.3006   -1.5166    0.2395 C   0  0  0  0  0  0  0  0  0  0  0  0
   -6.3987   -1.3940    1.0870 C   0  0  0  0  0  0  0  0  0  0  0  0
   -6.7479   -0.1491    1.6111 C   0  0  0  0  0  0  0  0  0  0  0  0
   -3.3805   -0.5013   -0.9404 N   0  0  0  0  0  0  0  0  0  0  0  0
   -3.2859   -1.4421   -2.0239 C   0  0  0  0  0  0  0  0  0  0  0  0
   -4.3401   -1.8677   -2.5735 O   0  0  0  0  0  0  0  0  0  0  0  0
   -1.9665   -1.9022   -2.5193 C   0  0  0  0  0  0  0  0  0  0  0  0
   -1.8546   -2.4861   -3.7940 C   0  0  0  0  0  0  0  0  0  0  0  0
   -0.6206   -2.9484   -4.2560 C   0  0  0  0  0  0  0  0  0  0  0  0
    0.5124   -2.8492   -3.4481 C   0  0  0  0  0  0  0  0  0  0  0  0
    0.4151   -2.2964   -2.1626 C   0  0  0  0  0  0  0  0  0  0  0  0
   -0.8183   -1.8028   -1.7119 C   0  0  0  0  0  0  0  0  0  0  0  0
    1.6088   -2.1721   -1.3103 C   0  0  0  0  0  0  0  0  0  0  0  0
    2.0088   -0.9914   -0.7762 N   0  0  0  0  0  0  0  0  0  0  0  0
    3.1738   -1.1831   -0.1643 N   0  0  0  0  0  0  0  0  0  0  0  0
    3.5223   -2.4714   -0.3178 C   0  0  0  0  0  0  0  0  0  0  0  0
    4.6585   -3.0678    0.1175 N   0  0  0  0  0  0  0  0  0  0  0  0
    4.8307   -4.3964   -0.1436 C   0  0  0  0  0  0  0  0  0  0  0  0
    3.8627   -5.1049   -0.8044 N   0  0  0  0  0  0  0  0  0  0  0  0
    2.7117   -4.5129   -1.2431 C   0  0  0  0  0  0  0  0  0  0  0  0
    2.5633   -3.1410   -1.0147 C   0  0  0  0  0  0  0  0  0  0  0  0
    1.6843   -5.3120   -1.8307 N   0  0  0  0  0  0  0  0  0  0  0  0
    3.9451   -0.1284    0.5003 C   0  0  2  0  0  0  0  0  0  0  0  0
    3.1084    0.5453    1.6163 C   0  0  0  0  0  0  0  0  0  0  0  0
    3.3972    2.0478    1.7789 C   0  0  0  0  0  0  0  0  0  0  0  0
    4.8581    2.3970    1.4745 C   0  0  0  0  0  0  0  0  0  0  0  0
    5.2536    1.9248    0.1361 N   0  0  0  0  0  0  0  0  0  0  0  0
    4.4570    0.8854   -0.5336 C   0  0  0  0  0  0  0  0  0  0  0  0
    6.3661    2.5299   -0.5561 C   0  0  0  0  0  0  0  0  0  0  0  0
    6.4282    2.4546   -1.8136 O   0  0  0  0  0  0  0  0  0  0  0  0
    7.4399    3.2285    0.1881 C   0  0  0  0  0  0  0  0  0  0  0  0
    8.4445    3.8536   -0.4276 C   0  0  0  0  0  0  0  0  0  0  0  0
    9.7124    4.6807    0.5258 S   0  0  0  0  0  0  0  0  0  0  0  0
   -4.4964    3.4338    1.6912 H   0  0  0  0  0  0  0  0  0  0  0  0
   -5.9191    4.5128    1.8187 H   0  0  0  0  0  0  0  0  0  0  0  0
   -5.6246    3.6301    0.2841 H   0  0  0  0  0  0  0  0  0  0  0  0
   -8.0309    2.6461    0.4446 H   0  0  0  0  0  0  0  0  0  0  0  0
   -8.1878    3.6798    1.9126 H   0  0  0  0  0  0  0  0  0  0  0  0
   -8.5858    1.9403    2.0082 H   0  0  0  0  0  0  0  0  0  0  0  0
   -5.2150    2.0693    3.7164 H   0  0  0  0  0  0  0  0  0  0  0  0
   -6.5372    3.2808    3.9033 H   0  0  0  0  0  0  0  0  0  0  0  0
   -6.9228    1.5254    3.8813 H   0  0  0  0  0  0  0  0  0  0  0  0
   -4.2565    1.7021    0.1866 H   0  0  0  0  0  0  0  0  0  0  0  0
   -5.0314   -2.4964   -0.1327 H   0  0  0  0  0  0  0  0  0  0  0  0
   -6.9792   -2.2699    1.3468 H   0  0  0  0  0  0  0  0  0  0  0  0
   -7.6000   -0.1004    2.2747 H   0  0  0  0  0  0  0  0  0  0  0  0
   -2.6098    0.1957   -0.8228 H   0  0  0  0  0  0  0  0  0  0  0  0
   -2.7200   -2.5765   -4.4373 H   0  0  0  0  0  0  0  0  0  0  0  0
   -0.5433   -3.3860   -5.2433 H   0  0  0  0  0  0  0  0  0  0  0  0
    1.4641   -3.2064   -3.8235 H   0  0  0  0  0  0  0  0  0  0  0  0
   -0.8838   -1.3785   -0.7177 H   0  0  0  0  0  0  0  0  0  0  0  0
    5.7288   -4.8980    0.1893 H   0  0  0  0  0  0  0  0  0  0  0  0
    0.6956   -4.9850   -1.8799 H   0  0  0  0  0  0  0  0  0  0  0  0
    1.8847   -6.3026   -2.0949 H   0  0  0  0  0  0  0  0  0  0  0  0
    4.8426   -0.5797    0.9823 H   0  0  0  0  0  0  0  0  0  0  0  0
    3.3168    0.0280    2.5795 H   0  0  0  0  0  0  0  0  0  0  0  0
    2.0196    0.4276    1.4204 H   0  0  0  0  0  0  0  0  0  0  0  0
    3.1434    2.3664    2.8130 H   0  0  0  0  0  0  0  0  0  0  0  0
    2.7457    2.6211    1.0820 H   0  0  0  0  0  0  0  0  0  0  0  0
    4.9621    3.5028    1.5321 H   0  0  0  0  0  0  0  0  0  0  0  0
    5.5205    1.9375    2.2390 H   0  0  0  0  0  0  0  0  0  0  0  0
    3.6055    1.3596   -1.0681 H   0  0  0  0  0  0  0  0  0  0  0  0
    5.0780    0.3407   -1.2778 H   0  0  0  0  0  0  0  0  0  0  0  0
    7.4189    3.2264    1.2702 H   0  0  0  0  0  0  0  0  0  0  0  0
    8.5136    3.8777   -1.5078 H   0  0  0  0  0  0  0  0  0  0  0  0
   10.5064    3.5200    0.5802 H   0  0  0  0  0  0  0  0  0  0  0  0
  1  2  1  0
  2  3  1  0
  2  4  1  0
  2  5  1  0
  5  6  2  0
  6  7  1  0
  7  8  2  0
  8  9  1  0
  9 10  2  0
  7 11  1  0
 11 12  1  0
 12 13  2  0
 12 14  1  0
 14 15  2  0
 15 16  1  0
 16 17  2  0
 17 18  1  0
 18 19  2  0
 18 20  1  0
 20 21  2  0
 21 22  1  0
 22 23  1  0
 23 24  2  0
 24 25  1  0
 25 26  2  0
 26 27  1  0
 27 28  2  0
 27 29  1  0
 22 30  1  0
 30 31  1  0
 31 32  1  0
 32 33  1  0
 33 34  1  0
 34 35  1  0
 34 36  1  0
 36 37  2  0
 36 38  1  0
 38 39  2  0
 39 40  1  0
 10  5  1  0
 19 14  1  0
 28 20  1  0
 28 23  1  0
 35 30  1  0
  1 41  1  0
  1 42  1  0
  1 43  1  0
  3 44  1  0
  3 45  1  0
  3 46  1  0
  4 47  1  0
  4 48  1  0
  4 49  1  0
  6 50  1  0
  8 51  1  0
  9 52  1  0
 10 53  1  0
 11 54  1  0
 15 55  1  0
 16 56  1  0
 17 57  1  0
 19 58  1  0
 25 59  1  0
 29 60  1  0
 29 61  1  0
 30 62  1  1
 31 63  1  0
 31 64  1  0
 32 65  1  0
 32 66  1  0
 33 67  1  0
 33 68  1  0
 35 69  1  0
 35 70  1  0
 38 71  1  0
 39 72  1  0
 40 73  1  0
M  END
$$$$
