
     RDKit          3D

 54 58  0  0  0  0  0  0  0  0999 V2000
   -3.2773   -2.7796    4.0281 C   0  0  0  0  0  0  0  0  0  0  0  0
   -2.8938   -1.6539    3.4260 C   0  0  0  0  0  0  0  0  0  0  0  0
   -2.9890   -1.4689    1.9592 C   0  0  0  0  0  0  0  0  0  0  0  0
   -3.3749   -2.4309    1.2376 O   0  0  0  0  0  0  0  0  0  0  0  0
   -2.6418   -0.2104    1.3411 N   0  0  0  0  0  0  0  0  0  0  0  0
   -2.6506    1.0339    2.1298 C   0  0  0  0  0  0  0  0  0  0  0  0
   -2.6884    2.2753    1.2301 C   0  0  0  0  0  0  0  0  0  0  0  0
   -1.5498    2.2665    0.1996 C   0  0  0  0  0  0  0  0  0  0  0  0
   -1.2943    0.8674   -0.4209 C   0  0  0  0  0  0  0  0  0  0  0  0
   -2.4066   -0.1509   -0.1101 C   0  0  0  0  0  0  0  0  0  0  0  0
   -1.0451    0.9533   -1.8722 N   0  0  0  0  0  0  0  0  0  0  0  0
   -1.8465    1.4418   -2.8429 C   0  0  0  0  0  0  0  0  0  0  0  0
   -3.1462    1.9548   -2.7533 C   0  0  0  0  0  0  0  0  0  0  0  0
   -3.7478    2.4307   -3.9326 C   0  0  0  0  0  0  0  0  0  0  0  0
   -3.0469    2.3967   -5.1577 C   0  0  0  0  0  0  0  0  0  0  0  0
   -1.7356    1.8917   -5.2132 C   0  0  0  0  0  0  0  0  0  0  0  0
   -1.1685    1.4238   -4.0302 C   0  0  0  0  0  0  0  0  0  0  0  0
    0.0731    0.9387   -3.8620 N   0  0  0  0  0  0  0  0  0  0  0  0
    0.1068    0.6497   -2.5369 C   0  0  0  0  0  0  0  0  0  0  0  0
    1.2843    0.1321   -1.9082 N   0  0  0  0  0  0  0  0  0  0  0  0
    1.2875   -1.1149   -1.1991 C   0  0  0  0  0  0  0  0  0  0  0  0
    0.3028   -1.8958   -1.2945 O   0  0  0  0  0  0  0  0  0  0  0  0
    2.4355   -1.4975   -0.3608 C   0  0  0  0  0  0  0  0  0  0  0  0
    2.5589   -2.6848    0.3538 C   0  0  0  0  0  0  0  0  0  0  0  0
    3.7465   -2.7700    1.0913 C   0  0  0  0  0  0  0  0  0  0  0  0
    4.5580   -1.6475    0.9608 C   0  0  0  0  0  0  0  0  0  0  0  0
    3.7983   -0.5527   -0.0678 S   0  0  0  0  0  0  0  0  0  0  0  0
    5.8603   -1.4379    1.6121 C   0  0  0  0  0  0  0  0  0  0  0  0
    6.5380   -2.3082    2.4414 C   0  0  0  0  0  0  0  0  0  0  0  0
    7.6886   -1.7209    2.8137 N   0  0  0  0  0  0  0  0  0  0  0  0
    7.7777   -0.5199    2.2630 N   0  0  0  0  0  0  0  0  0  0  0  0
    6.6702   -0.3218    1.5214 C   0  0  0  0  0  0  0  0  0  0  0  0
   -3.6798   -3.6156    3.4688 H   0  0  0  0  0  0  0  0  0  0  0  0
   -3.1885   -2.8712    5.1029 H   0  0  0  0  0  0  0  0  0  0  0  0
   -2.4977   -0.8569    4.0428 H   0  0  0  0  0  0  0  0  0  0  0  0
   -1.7427    1.0705    2.7697 H   0  0  0  0  0  0  0  0  0  0  0  0
   -3.5491    1.0569    2.7841 H   0  0  0  0  0  0  0  0  0  0  0  0
   -2.6155    3.1909    1.8563 H   0  0  0  0  0  0  0  0  0  0  0  0
   -3.6652    2.3081    0.6990 H   0  0  0  0  0  0  0  0  0  0  0  0
   -0.6166    2.6126    0.6979 H   0  0  0  0  0  0  0  0  0  0  0  0
   -1.7782    3.0228   -0.5812 H   0  0  0  0  0  0  0  0  0  0  0  0
   -0.3839    0.4764    0.0811 H   0  0  0  0  0  0  0  0  0  0  0  0
   -3.3547    0.1121   -0.6185 H   0  0  0  0  0  0  0  0  0  0  0  0
   -2.0869   -1.1429   -0.4935 H   0  0  0  0  0  0  0  0  0  0  0  0
   -3.6807    2.0068   -1.8167 H   0  0  0  0  0  0  0  0  0  0  0  0
   -4.7526    2.8318   -3.8993 H   0  0  0  0  0  0  0  0  0  0  0  0
   -3.5183    2.7696   -6.0578 H   0  0  0  0  0  0  0  0  0  0  0  0
   -1.1841    1.8732   -6.1443 H   0  0  0  0  0  0  0  0  0  0  0  0
    2.1964    0.5863   -2.1394 H   0  0  0  0  0  0  0  0  0  0  0  0
    1.8123   -3.4678    0.3488 H   0  0  0  0  0  0  0  0  0  0  0  0
    3.9968   -3.6259    1.7035 H   0  0  0  0  0  0  0  0  0  0  0  0
    6.2229   -3.2951    2.7535 H   0  0  0  0  0  0  0  0  0  0  0  0
    8.4134   -2.1344    3.4413 H   0  0  0  0  0  0  0  0  0  0  0  0
    6.4692    0.5778    0.9545 H   0  0  0  0  0  0  0  0  0  0  0  0
  1  2  2  0
  2  3  1  0
  3  4  2  0
  3  5  1  0
  5  6  1  0
  6  7  1  0
  7  8  1  0
  8  9  1  0
  9 10  1  0
  9 11  1  0
 11 12  1  0
 12 13  2  0
 13 14  1  0
 14 15  2  0
 15 16  1  0
 16 17  2  0
 17 18  1  0
 18 19  2  0
 19 20  1  0
 20 21  1  0
 21 22  2  0
 21 23  1  0
 23 24  2  0
 24 25  1  0
 25 26  2  0
 26 27  1  0
 26 28  1  0
 28 29  2  0
 29 30  1  0
 30 31  1  0
 31 32  2  0
 10  5  1  0
 19 11  1  0
 17 12  1  0
 27 23  1  0
 32 28  1  0
  1 33  1  0
  1 34  1  0
  2 35  1  0
  6 36  1  0
  6 37  1  0
  7 38  1  0
  7 39  1  0
  8 40  1  0
  8 41  1  0
  9 42  1  0
 10 43  1  0
 10 44  1  0
 13 45  1  0
 14 46  1  0
 15 47  1  0
 16 48  1  0
 20 49  1  0
 24 50  1  0
 25 51  1  0
 29 52  1  0
 30 53  1  0
 32 54  1  0
M  END
$$$$
