
     RDKit          3D

 63 66  0  0  0  0  0  0  0  0999 V2000
   -6.7057    2.6590    1.1673 C   0  0  0  0  0  0  0  0  0  0  0  0
   -6.9597    1.1710    0.8694 C   0  0  0  0  0  0  0  0  0  0  0  0
   -8.2969    0.9761    0.1374 C   0  0  0  0  0  0  0  0  0  0  0  0
   -5.7958    0.5318    0.0847 C   0  0  0  0  0  0  0  0  0  0  0  0
   -5.6448    1.1611   -1.2369 N   0  0  0  0  0  0  0  0  0  0  0  0
   -5.0566    0.2500   -2.2295 C   0  0  0  0  0  0  0  0  0  0  0  0
   -3.6468   -0.1511   -1.8680 C   0  0  0  0  0  0  0  0  0  0  0  0
   -2.5730    0.7300   -2.1233 C   0  0  0  0  0  0  0  0  0  0  0  0
   -1.2940    0.3315   -1.7422 C   0  0  0  0  0  0  0  0  0  0  0  0
   -1.0627   -0.8661   -1.1255 C   0  0  0  0  0  0  0  0  0  0  0  0
   -2.0976   -1.7644   -0.8536 C   0  0  0  0  0  0  0  0  0  0  0  0
   -3.4000   -1.3961   -1.2323 C   0  0  0  0  0  0  0  0  0  0  0  0
    0.2530   -0.9776   -0.8643 N   0  0  0  0  0  0  0  0  0  0  0  0
    0.7773    0.1780   -1.3666 C   0  0  0  0  0  0  0  0  0  0  0  0
   -0.1470    1.0179   -1.8981 N   0  0  0  0  0  0  0  0  0  0  0  0
    2.1652    0.5207   -1.3032 N   0  0  0  0  0  0  0  0  0  0  0  0
    3.1846   -0.3189   -1.8692 C   0  0  0  0  0  0  0  0  0  0  0  0
    2.8725   -1.2210   -2.6982 O   0  0  0  0  0  0  0  0  0  0  0  0
    4.5968   -0.1448   -1.4849 C   0  0  0  0  0  0  0  0  0  0  0  0
    5.6685   -0.8836   -1.9742 C   0  0  0  0  0  0  0  0  0  0  0  0
    6.8951   -0.5379   -1.3925 C   0  0  0  0  0  0  0  0  0  0  0  0
    6.7907    0.4683   -0.4401 C   0  0  0  0  0  0  0  0  0  0  0  0
    5.1755    0.9274   -0.3205 S   0  0  0  0  0  0  0  0  0  0  0  0
    7.8969    1.0367    0.3476 C   0  0  0  0  0  0  0  0  0  0  0  0
    7.8251    2.0510    1.2812 C   0  0  0  0  0  0  0  0  0  0  0  0
    9.0633    2.2763    1.7535 N   0  0  0  0  0  0  0  0  0  0  0  0
    9.9222    1.4543    1.1672 N   0  0  0  0  0  0  0  0  0  0  0  0
    9.2333    0.6828    0.3020 C   0  0  0  0  0  0  0  0  0  0  0  0
    0.9234   -2.0218   -0.0701 C   0  0  0  0  0  0  0  0  0  0  0  0
    0.9091   -1.7085    1.4533 C   0  0  0  0  0  0  0  0  0  0  0  0
    1.5076   -2.9022    2.2286 C   0  0  0  0  0  0  0  0  0  0  0  0
    1.7452   -0.4550    1.7655 C   0  0  0  0  0  0  0  0  0  0  0  0
   -0.4080   -1.4718    1.8926 O   0  0  0  0  0  0  0  0  0  0  0  0
   -6.6449    3.2523    0.2308 H   0  0  0  0  0  0  0  0  0  0  0  0
   -5.7636    2.7762    1.7353 H   0  0  0  0  0  0  0  0  0  0  0  0
   -7.5388    3.0624    1.7753 H   0  0  0  0  0  0  0  0  0  0  0  0
   -7.0320    0.6409    1.8428 H   0  0  0  0  0  0  0  0  0  0  0  0
   -8.3202    1.5591   -0.8060 H   0  0  0  0  0  0  0  0  0  0  0  0
   -9.1399    1.3066    0.7831 H   0  0  0  0  0  0  0  0  0  0  0  0
   -8.4476   -0.1036   -0.1013 H   0  0  0  0  0  0  0  0  0  0  0  0
   -4.8462    0.6279    0.6654 H   0  0  0  0  0  0  0  0  0  0  0  0
   -6.0068   -0.5609   -0.0139 H   0  0  0  0  0  0  0  0  0  0  0  0
   -5.0301    2.0015   -1.1450 H   0  0  0  0  0  0  0  0  0  0  0  0
   -5.0489    0.7568   -3.2189 H   0  0  0  0  0  0  0  0  0  0  0  0
   -5.7051   -0.6446   -2.3516 H   0  0  0  0  0  0  0  0  0  0  0  0
   -2.7329    1.6883   -2.6015 H   0  0  0  0  0  0  0  0  0  0  0  0
   -1.9184   -2.7174   -0.3758 H   0  0  0  0  0  0  0  0  0  0  0  0
   -4.2162   -2.0785   -1.0288 H   0  0  0  0  0  0  0  0  0  0  0  0
    2.4215    1.4761   -0.9644 H   0  0  0  0  0  0  0  0  0  0  0  0
    5.5716   -1.6560   -2.7242 H   0  0  0  0  0  0  0  0  0  0  0  0
    7.8265   -1.0164   -1.6604 H   0  0  0  0  0  0  0  0  0  0  0  0
    6.9408    2.5918    1.5932 H   0  0  0  0  0  0  0  0  0  0  0  0
    9.3266    2.9916    2.4703 H   0  0  0  0  0  0  0  0  0  0  0  0
    9.6830   -0.0797   -0.3261 H   0  0  0  0  0  0  0  0  0  0  0  0
    0.4238   -2.9985   -0.2559 H   0  0  0  0  0  0  0  0  0  0  0  0
    1.9688   -2.1545   -0.4126 H   0  0  0  0  0  0  0  0  0  0  0  0
    2.5660   -3.0679    1.9349 H   0  0  0  0  0  0  0  0  0  0  0  0
    0.9357   -3.8329    2.0238 H   0  0  0  0  0  0  0  0  0  0  0  0
    1.4687   -2.7078    3.3233 H   0  0  0  0  0  0  0  0  0  0  0  0
    1.8261   -0.3074    2.8633 H   0  0  0  0  0  0  0  0  0  0  0  0
    2.7727   -0.5478    1.3514 H   0  0  0  0  0  0  0  0  0  0  0  0
    1.2633    0.4531    1.3477 H   0  0  0  0  0  0  0  0  0  0  0  0
   -0.9203   -2.3135    1.7980 H   0  0  0  0  0  0  0  0  0  0  0  0
  1  2  1  0
  2  3  1  0
  2  4  1  0
  4  5  1  0
  5  6  1  0
  6  7  1  0
  7  8  2  0
  8  9  1  0
  9 10  2  0
 10 11  1  0
 11 12  2  0
 10 13  1  0
 13 14  1  0
 14 15  2  0
 14 16  1  0
 16 17  1  0
 17 18  2  0
 17 19  1  0
 19 20  2  0
 20 21  1  0
 21 22  2  0
 22 23  1  0
 22 24  1  0
 24 25  2  0
 25 26  1  0
 26 27  1  0
 27 28  2  0
 13 29  1  0
 29 30  1  0
 30 31  1  0
 30 32  1  0
 30 33  1  0
 12  7  1  0
 15  9  1  0
 23 19  1  0
 28 24  1  0
  1 34  1  0
  1 35  1  0
  1 36  1  0
  2 37  1  0
  3 38  1  0
  3 39  1  0
  3 40  1  0
  4 41  1  0
  4 42  1  0
  5 43  1  0
  6 44  1  0
  6 45  1  0
  8 46  1  0
 11 47  1  0
 12 48  1  0
 16 49  1  0
 20 50  1  0
 21 51  1  0
 25 52  1  0
 26 53  1  0
 28 54  1  0
 29 55  1  0
 29 56  1  0
 31 57  1  0
 31 58  1  0
 31 59  1  0
 32 60  1  0
 32 61  1  0
 32 62  1  0
 33 63  1  0
M  END
$$$$
