
     RDKit          3D

 68 72  0  0  0  0  0  0  0  0999 V2000
   -6.8465   -0.1700    1.7564 C   0  0  0  0  0  0  0  0  0  0  0  0
   -6.8987    0.4275    0.3402 C   0  0  0  0  0  0  0  0  0  0  0  0
   -7.6262    1.7968    0.2758 C   0  0  0  0  0  0  0  0  0  0  0  0
   -7.0516    2.6787   -0.6764 O   0  0  0  0  0  0  0  0  0  0  0  0
   -6.8118    2.0190   -1.9061 C   0  0  0  0  0  0  0  0  0  0  0  0
   -5.8038    0.8407   -1.7493 C   0  0  0  0  0  0  0  0  0  0  0  0
   -5.5698    0.5018   -0.3175 N   0  0  0  0  0  0  0  0  0  0  0  0
   -4.6188    1.4239    0.3666 C   0  0  0  0  0  0  0  0  0  0  0  0
   -3.2316    0.8370    0.3770 C   0  0  0  0  0  0  0  0  0  0  0  0
   -2.1283    1.6131   -0.0449 C   0  0  0  0  0  0  0  0  0  0  0  0
   -0.8617    1.0398    0.0176 C   0  0  0  0  0  0  0  0  0  0  0  0
   -0.6635   -0.2318    0.4727 C   0  0  0  0  0  0  0  0  0  0  0  0
   -1.7238   -1.0262    0.9127 C   0  0  0  0  0  0  0  0  0  0  0  0
   -3.0177   -0.4780    0.8657 C   0  0  0  0  0  0  0  0  0  0  0  0
    0.6513   -0.5166    0.4248 N   0  0  0  0  0  0  0  0  0  0  0  0
    1.2083    0.6314   -0.0547 C   0  0  0  0  0  0  0  0  0  0  0  0
    0.3060    1.6070   -0.3317 N   0  0  0  0  0  0  0  0  0  0  0  0
    2.6090    0.8090   -0.2893 N   0  0  0  0  0  0  0  0  0  0  0  0
    3.5802    0.6669    0.7560 C   0  0  0  0  0  0  0  0  0  0  0  0
    3.2055    0.5884    1.9579 O   0  0  0  0  0  0  0  0  0  0  0  0
    5.0195    0.6435    0.4498 C   0  0  0  0  0  0  0  0  0  0  0  0
    5.5987    0.5823   -0.8152 C   0  0  0  0  0  0  0  0  0  0  0  0
    6.9991    0.5690   -0.7850 C   0  0  0  0  0  0  0  0  0  0  0  0
    7.5244    0.6143    0.5031 C   0  0  0  0  0  0  0  0  0  0  0  0
    6.2487    0.6696    1.6000 S   0  0  0  0  0  0  0  0  0  0  0  0
    8.9511    0.6105    0.8587 C   0  0  0  0  0  0  0  0  0  0  0  0
    9.4935    0.6033    2.1255 C   0  0  0  0  0  0  0  0  0  0  0  0
   10.8326    0.5959    2.0079 N   0  0  0  0  0  0  0  0  0  0  0  0
   11.1708    0.5994    0.7282 N   0  0  0  0  0  0  0  0  0  0  0  0
   10.0363    0.6087    0.0019 C   0  0  0  0  0  0  0  0  0  0  0  0
    1.2979   -1.8125    0.6826 C   0  0  0  0  0  0  0  0  0  0  0  0
    1.3017   -2.7317   -0.5695 C   0  0  0  0  0  0  0  0  0  0  0  0
    2.1359   -2.1107   -1.7020 C   0  0  0  0  0  0  0  0  0  0  0  0
    1.9167   -4.0971   -0.1986 C   0  0  0  0  0  0  0  0  0  0  0  0
   -0.0102   -2.9165   -1.0459 O   0  0  0  0  0  0  0  0  0  0  0  0
   -4.5079    1.0546   -2.5514 C   0  0  0  0  0  0  0  0  0  0  0  0
   -7.8743   -0.4388    2.0822 H   0  0  0  0  0  0  0  0  0  0  0  0
   -6.4393    0.5387    2.5051 H   0  0  0  0  0  0  0  0  0  0  0  0
   -6.2336   -1.0956    1.7560 H   0  0  0  0  0  0  0  0  0  0  0  0
   -7.5215   -0.2960   -0.2372 H   0  0  0  0  0  0  0  0  0  0  0  0
   -7.5680    2.2970    1.2651 H   0  0  0  0  0  0  0  0  0  0  0  0
   -8.7056    1.6502    0.0536 H   0  0  0  0  0  0  0  0  0  0  0  0
   -6.4245    2.7693   -2.6285 H   0  0  0  0  0  0  0  0  0  0  0  0
   -7.7734    1.6491   -2.3316 H   0  0  0  0  0  0  0  0  0  0  0  0
   -6.2769   -0.0498   -2.2231 H   0  0  0  0  0  0  0  0  0  0  0  0
   -4.6161    2.4316   -0.1024 H   0  0  0  0  0  0  0  0  0  0  0  0
   -4.8926    1.6077    1.4228 H   0  0  0  0  0  0  0  0  0  0  0  0
   -2.2529    2.6271   -0.4050 H   0  0  0  0  0  0  0  0  0  0  0  0
   -1.5671   -2.0239    1.2973 H   0  0  0  0  0  0  0  0  0  0  0  0
   -3.8510   -1.0737    1.2128 H   0  0  0  0  0  0  0  0  0  0  0  0
    2.8908    1.2877   -1.1726 H   0  0  0  0  0  0  0  0  0  0  0  0
    5.0361    0.5396   -1.7391 H   0  0  0  0  0  0  0  0  0  0  0  0
    7.6034    0.5240   -1.6811 H   0  0  0  0  0  0  0  0  0  0  0  0
    8.9571    0.6019    3.0655 H   0  0  0  0  0  0  0  0  0  0  0  0
   11.5172    0.5889    2.7961 H   0  0  0  0  0  0  0  0  0  0  0  0
   10.0073    0.6146   -1.0791 H   0  0  0  0  0  0  0  0  0  0  0  0
    0.7716   -2.3212    1.5187 H   0  0  0  0  0  0  0  0  0  0  0  0
    2.3386   -1.6613    1.0310 H   0  0  0  0  0  0  0  0  0  0  0  0
    1.6586   -1.1809   -2.0759 H   0  0  0  0  0  0  0  0  0  0  0  0
    3.1651   -1.8740   -1.3527 H   0  0  0  0  0  0  0  0  0  0  0  0
    2.2043   -2.8136   -2.5611 H   0  0  0  0  0  0  0  0  0  0  0  0
    1.8844   -4.7859   -1.0699 H   0  0  0  0  0  0  0  0  0  0  0  0
    1.3511   -4.5680    0.6343 H   0  0  0  0  0  0  0  0  0  0  0  0
    2.9752   -3.9781    0.1204 H   0  0  0  0  0  0  0  0  0  0  0  0
   -0.5189   -3.4167   -0.3553 H   0  0  0  0  0  0  0  0  0  0  0  0
   -3.8019    0.2167   -2.3690 H   0  0  0  0  0  0  0  0  0  0  0  0
   -4.0181    2.0153   -2.2899 H   0  0  0  0  0  0  0  0  0  0  0  0
   -4.7402    1.0771   -3.6376 H   0  0  0  0  0  0  0  0  0  0  0  0
  1  2  1  0
  2  3  1  0
  3  4  1  0
  4  5  1  0
  5  6  1  0
  6  7  1  0
  7  8  1  0
  8  9  1  0
  9 10  2  0
 10 11  1  0
 11 12  2  0
 12 13  1  0
 13 14  2  0
 12 15  1  0
 15 16  1  0
 16 17  2  0
 16 18  1  0
 18 19  1  0
 19 20  2  0
 19 21  1  0
 21 22  2  0
 22 23  1  0
 23 24  2  0
 24 25  1  0
 24 26  1  0
 26 27  2  0
 27 28  1  0
 28 29  1  0
 29 30  2  0
 15 31  1  0
 31 32  1  0
 32 33  1  0
 32 34  1  0
 32 35  1  0
  6 36  1  0
  7  2  1  0
 14  9  1  0
 17 11  1  0
 25 21  1  0
 30 26  1  0
  1 37  1  0
  1 38  1  0
  1 39  1  0
  2 40  1  0
  3 41  1  0
  3 42  1  0
  5 43  1  0
  5 44  1  0
  6 45  1  0
  8 46  1  0
  8 47  1  0
 10 48  1  0
 13 49  1  0
 14 50  1  0
 18 51  1  0
 22 52  1  0
 23 53  1  0
 27 54  1  0
 28 55  1  0
 30 56  1  0
 31 57  1  0
 31 58  1  0
 33 59  1  0
 33 60  1  0
 33 61  1  0
 34 62  1  0
 34 63  1  0
 34 64  1  0
 35 65  1  0
 36 66  1  0
 36 67  1  0
 36 68  1  0
M  END
$$$$
