
     RDKit          3D

 45 48  0  0  0  0  0  0  0  0999 V2000
   -5.5678   -0.8178    0.3658 C   0  0  0  0  0  0  0  0  0  0  0  0
   -4.9512   -0.0655   -0.8253 C   0  0  0  0  0  0  0  0  0  0  0  0
   -3.4839   -0.4705   -1.1963 C   0  0  0  0  0  0  0  0  0  0  0  0
   -3.3275   -2.0212   -1.2533 C   0  0  0  0  0  0  0  0  0  0  0  0
   -4.2046   -2.6971   -2.3139 C   0  0  0  0  0  0  0  0  0  0  0  0
   -2.4142    0.1039   -0.2419 C   0  0  0  0  0  0  0  0  0  0  0  0
   -1.0461   -0.0523   -0.5924 C   0  0  0  0  0  0  0  0  0  0  0  0
   -0.0695    0.4662    0.2533 C   0  0  0  0  0  0  0  0  0  0  0  0
   -0.3924    1.1329    1.4005 C   0  0  0  0  0  0  0  0  0  0  0  0
   -1.7118    1.3373    1.7808 C   0  0  0  0  0  0  0  0  0  0  0  0
   -2.7263    0.8273    0.9513 C   0  0  0  0  0  0  0  0  0  0  0  0
    0.7841    1.5225    2.0019 C   0  0  0  0  0  0  0  0  0  0  0  0
    1.7892    1.0547    1.1584 C   0  0  0  0  0  0  0  0  0  0  0  0
    1.2627    0.4100    0.0893 N   0  0  0  0  0  0  0  0  0  0  0  0
    3.2301    1.2381    1.3925 C   0  0  0  0  0  0  0  0  0  0  0  0
    3.7604    1.8886    2.4651 N   0  0  0  0  0  0  0  0  0  0  0  0
    5.0892    1.8643    2.3607 N   0  0  0  0  0  0  0  0  0  0  0  0
    5.3919    1.2057    1.2341 C   0  0  0  0  0  0  0  0  0  0  0  0
    4.2793    0.8063    0.6134 C   0  0  0  0  0  0  0  0  0  0  0  0
    4.6387   -0.0287   -0.7940 S   0  0  0  0  0  0  0  0  0  0  0  0
    6.3283    0.1604   -0.5595 C   0  0  0  0  0  0  0  0  0  0  0  0
    6.5914    0.8704    0.6245 C   0  0  0  0  0  0  0  0  0  0  0  0
    7.3738   -0.3855   -1.4752 C   0  0  0  0  0  0  0  0  0  0  0  0
    8.1008   -1.3615   -0.8198 F   0  0  0  0  0  0  0  0  0  0  0  0
    8.2230    0.6303   -1.8732 F   0  0  0  0  0  0  0  0  0  0  0  0
   -3.2172    0.0292   -2.4877 O   0  0  0  0  0  0  0  0  0  0  0  0
   -5.9084   -1.8269    0.0561 H   0  0  0  0  0  0  0  0  0  0  0  0
   -4.8507   -0.9374    1.2021 H   0  0  0  0  0  0  0  0  0  0  0  0
   -6.4543   -0.2608    0.7354 H   0  0  0  0  0  0  0  0  0  0  0  0
   -5.0003    1.0286   -0.6365 H   0  0  0  0  0  0  0  0  0  0  0  0
   -5.6101   -0.2336   -1.7048 H   0  0  0  0  0  0  0  0  0  0  0  0
   -2.2775   -2.2882   -1.4966 H   0  0  0  0  0  0  0  0  0  0  0  0
   -3.5380   -2.4724   -0.2604 H   0  0  0  0  0  0  0  0  0  0  0  0
   -5.2827   -2.5591   -2.0984 H   0  0  0  0  0  0  0  0  0  0  0  0
   -3.9791   -2.2939   -3.3234 H   0  0  0  0  0  0  0  0  0  0  0  0
   -3.9952   -3.7876   -2.3218 H   0  0  0  0  0  0  0  0  0  0  0  0
   -0.7495   -0.5539   -1.5047 H   0  0  0  0  0  0  0  0  0  0  0  0
   -1.9537    1.8826    2.6843 H   0  0  0  0  0  0  0  0  0  0  0  0
   -3.7418    1.0260    1.2522 H   0  0  0  0  0  0  0  0  0  0  0  0
    0.8988    2.0754    2.9253 H   0  0  0  0  0  0  0  0  0  0  0  0
    1.7736   -0.0384   -0.7024 H   0  0  0  0  0  0  0  0  0  0  0  0
    5.7535    2.2870    3.0461 H   0  0  0  0  0  0  0  0  0  0  0  0
    7.5743    1.1152    1.0050 H   0  0  0  0  0  0  0  0  0  0  0  0
    6.8986   -0.8307   -2.3742 H   0  0  0  0  0  0  0  0  0  0  0  0
   -3.2879    1.0201   -2.4528 H   0  0  0  0  0  0  0  0  0  0  0  0
  1  2  1  0
  2  3  1  0
  3  4  1  0
  4  5  1  0
  3  6  1  0
  6  7  2  0
  7  8  1  0
  8  9  2  0
  9 10  1  0
 10 11  2  0
  9 12  1  0
 12 13  2  0
 13 14  1  0
 13 15  1  0
 15 16  2  0
 16 17  1  0
 17 18  1  0
 18 19  2  0
 19 20  1  0
 20 21  1  0
 21 22  2  0
 21 23  1  0
 23 24  1  0
 23 25  1  0
  3 26  1  0
 11  6  1  0
 14  8  1  0
 19 15  1  0
 22 18  1  0
  1 27  1  0
  1 28  1  0
  1 29  1  0
  2 30  1  0
  2 31  1  0
  4 32  1  0
  4 33  1  0
  5 34  1  0
  5 35  1  0
  5 36  1  0
  7 37  1  0
 10 38  1  0
 11 39  1  0
 12 40  1  0
 14 41  1  0
 17 42  1  0
 22 43  1  0
 23 44  1  0
 26 45  1  0
M  END
$$$$
