
     RDKit          3D

 72 75  0  0  0  0  0  0  0  0999 V2000
   -7.3211    0.4545    0.7021 C   0  0  0  0  0  0  0  0  0  0  0  0
   -6.1721    1.2400    0.0185 C   0  0  0  0  0  0  0  0  0  0  0  0
   -6.4694    1.6938   -1.4607 C   0  0  0  0  0  0  0  0  0  0  0  0
   -7.8063    2.4728   -1.5294 C   0  0  0  0  0  0  0  0  0  0  0  0
   -6.5406    0.5111   -2.4507 C   0  0  0  0  0  0  0  0  0  0  0  0
   -5.3457    2.6466   -1.9310 C   0  0  0  0  0  0  0  0  0  0  0  0
   -4.8371    0.5671    0.1277 N   0  0  0  0  0  0  0  0  0  0  0  0
   -4.8828   -0.9114    0.1038 C   0  0  0  0  0  0  0  0  0  0  0  0
   -4.0810    1.0542    1.3054 C   0  0  0  0  0  0  0  0  0  0  0  0
   -2.6435    0.6009    1.2782 C   0  0  0  0  0  0  0  0  0  0  0  0
   -1.7945    1.0057    0.2243 C   0  0  0  0  0  0  0  0  0  0  0  0
   -0.4657    0.5900    0.2556 C   0  0  0  0  0  0  0  0  0  0  0  0
    0.0251   -0.1823    1.2702 C   0  0  0  0  0  0  0  0  0  0  0  0
   -0.7845   -0.6123    2.3245 C   0  0  0  0  0  0  0  0  0  0  0  0
   -2.1326   -0.2156    2.3204 C   0  0  0  0  0  0  0  0  0  0  0  0
    1.3299   -0.4225    1.0461 N   0  0  0  0  0  0  0  0  0  0  0  0
    1.5820    0.2393   -0.1173 C   0  0  0  0  0  0  0  0  0  0  0  0
    0.4975    0.8649   -0.6426 N   0  0  0  0  0  0  0  0  0  0  0  0
    2.8621    0.2651   -0.7562 N   0  0  0  0  0  0  0  0  0  0  0  0
    4.0099    0.8441   -0.1219 C   0  0  0  0  0  0  0  0  0  0  0  0
    3.8626    1.5875    0.8858 O   0  0  0  0  0  0  0  0  0  0  0  0
    5.3644    0.5986   -0.6409 C   0  0  0  0  0  0  0  0  0  0  0  0
    5.7247   -0.3289   -1.6154 C   0  0  0  0  0  0  0  0  0  0  0  0
    7.0995   -0.3500   -1.8804 C   0  0  0  0  0  0  0  0  0  0  0  0
    7.8231    0.5581   -1.1139 C   0  0  0  0  0  0  0  0  0  0  0  0
    6.7561    1.3779   -0.1024 S   0  0  0  0  0  0  0  0  0  0  0  0
    9.2781    0.7691   -1.1612 C   0  0  0  0  0  0  0  0  0  0  0  0
   10.1984    0.1320   -1.9690 C   0  0  0  0  0  0  0  0  0  0  0  0
   11.4162    0.6293   -1.6874 N   0  0  0  0  0  0  0  0  0  0  0  0
   11.3179    1.5493   -0.7398 N   0  0  0  0  0  0  0  0  0  0  0  0
   10.0183    1.6537   -0.3997 C   0  0  0  0  0  0  0  0  0  0  0  0
    2.2423   -1.2657    1.8314 C   0  0  0  0  0  0  0  0  0  0  0  0
    2.3264   -2.7207    1.2966 C   0  0  0  0  0  0  0  0  0  0  0  0
    0.9639   -3.4418    1.4008 C   0  0  0  0  0  0  0  0  0  0  0  0
    3.3543   -3.4921    2.1409 C   0  0  0  0  0  0  0  0  0  0  0  0
    2.7844   -2.7268   -0.0351 O   0  0  0  0  0  0  0  0  0  0  0  0
   -8.1904    1.1191    0.8872 H   0  0  0  0  0  0  0  0  0  0  0  0
   -7.6624   -0.4000    0.0900 H   0  0  0  0  0  0  0  0  0  0  0  0
   -6.9979    0.0780    1.6941 H   0  0  0  0  0  0  0  0  0  0  0  0
   -6.1446    2.1964    0.5928 H   0  0  0  0  0  0  0  0  0  0  0  0
   -7.8295    3.2913   -0.7773 H   0  0  0  0  0  0  0  0  0  0  0  0
   -8.6710    1.7994   -1.3494 H   0  0  0  0  0  0  0  0  0  0  0  0
   -7.9462    2.9333   -2.5320 H   0  0  0  0  0  0  0  0  0  0  0  0
   -5.5478    0.0209   -2.5705 H   0  0  0  0  0  0  0  0  0  0  0  0
   -6.8479    0.8694   -3.4586 H   0  0  0  0  0  0  0  0  0  0  0  0
   -7.2884   -0.2412   -2.1298 H   0  0  0  0  0  0  0  0  0  0  0  0
   -5.2965    3.5478   -1.2826 H   0  0  0  0  0  0  0  0  0  0  0  0
   -5.5228    2.9830   -2.9761 H   0  0  0  0  0  0  0  0  0  0  0  0
   -4.3579    2.1428   -1.9004 H   0  0  0  0  0  0  0  0  0  0  0  0
   -5.1782   -1.3311    1.0872 H   0  0  0  0  0  0  0  0  0  0  0  0
   -5.5858   -1.2862   -0.6646 H   0  0  0  0  0  0  0  0  0  0  0  0
   -3.8835   -1.3113   -0.1665 H   0  0  0  0  0  0  0  0  0  0  0  0
   -4.0563    2.1669    1.3131 H   0  0  0  0  0  0  0  0  0  0  0  0
   -4.5846    0.7324    2.2444 H   0  0  0  0  0  0  0  0  0  0  0  0
   -2.1600    1.6281   -0.5835 H   0  0  0  0  0  0  0  0  0  0  0  0
   -0.4016   -1.2319    3.1233 H   0  0  0  0  0  0  0  0  0  0  0  0
   -2.7762   -0.5350    3.1304 H   0  0  0  0  0  0  0  0  0  0  0  0
    2.9083    0.0153   -1.7695 H   0  0  0  0  0  0  0  0  0  0  0  0
    5.0242   -0.9842   -2.1157 H   0  0  0  0  0  0  0  0  0  0  0  0
    7.5460   -1.0115   -2.6113 H   0  0  0  0  0  0  0  0  0  0  0  0
   10.0012   -0.6340   -2.7068 H   0  0  0  0  0  0  0  0  0  0  0  0
   12.3142    0.3476   -2.1392 H   0  0  0  0  0  0  0  0  0  0  0  0
    9.6396    2.3334    0.3525 H   0  0  0  0  0  0  0  0  0  0  0  0
    1.9223   -1.2722    2.8951 H   0  0  0  0  0  0  0  0  0  0  0  0
    3.2546   -0.8148    1.8295 H   0  0  0  0  0  0  0  0  0  0  0  0
    1.0537   -4.4898    1.0411 H   0  0  0  0  0  0  0  0  0  0  0  0
    0.1952   -2.9391    0.7783 H   0  0  0  0  0  0  0  0  0  0  0  0
    0.6097   -3.4598    2.4530 H   0  0  0  0  0  0  0  0  0  0  0  0
    4.3571   -3.0199    2.0570 H   0  0  0  0  0  0  0  0  0  0  0  0
    3.0564   -3.5086    3.2113 H   0  0  0  0  0  0  0  0  0  0  0  0
    3.4438   -4.5419    1.7846 H   0  0  0  0  0  0  0  0  0  0  0  0
    2.0428   -2.4277   -0.6239 H   0  0  0  0  0  0  0  0  0  0  0  0
  1  2  1  0
  2  3  1  0
  3  4  1  0
  3  5  1  0
  3  6  1  0
  2  7  1  0
  7  8  1  0
  7  9  1  0
  9 10  1  0
 10 11  2  0
 11 12  1  0
 12 13  2  0
 13 14  1  0
 14 15  2  0
 13 16  1  0
 16 17  1  0
 17 18  2  0
 17 19  1  0
 19 20  1  0
 20 21  2  0
 20 22  1  0
 22 23  2  0
 23 24  1  0
 24 25  2  0
 25 26  1  0
 25 27  1  0
 27 28  2  0
 28 29  1  0
 29 30  1  0
 30 31  2  0
 16 32  1  0
 32 33  1  0
 33 34  1  0
 33 35  1  0
 33 36  1  0
 15 10  1  0
 18 12  1  0
 26 22  1  0
 31 27  1  0
  1 37  1  0
  1 38  1  0
  1 39  1  0
  2 40  1  0
  4 41  1  0
  4 42  1  0
  4 43  1  0
  5 44  1  0
  5 45  1  0
  5 46  1  0
  6 47  1  0
  6 48  1  0
  6 49  1  0
  8 50  1  0
  8 51  1  0
  8 52  1  0
  9 53  1  0
  9 54  1  0
 11 55  1  0
 14 56  1  0
 15 57  1  0
 19 58  1  0
 23 59  1  0
 24 60  1  0
 28 61  1  0
 29 62  1  0
 31 63  1  0
 32 64  1  0
 32 65  1  0
 34 66  1  0
 34 67  1  0
 34 68  1  0
 35 69  1  0
 35 70  1  0
 35 71  1  0
 36 72  1  0
M  END
$$$$
