
     RDKit          3D

 67 71  0  0  0  0  0  0  0  0999 V2000
    2.8654   -0.8475   -4.0175 C   0  0  0  0  0  0  0  0  0  0  0  0
    2.0528    0.0557   -3.0671 C   0  0  0  0  0  0  0  0  0  0  0  0
    2.8762    1.3151   -2.7243 C   0  0  0  0  0  0  0  0  0  0  0  0
    1.7234   -0.7449   -1.7826 C   0  0  0  0  0  0  0  0  0  0  0  0
    0.8546    0.0078   -0.8625 N   0  0  0  0  0  0  0  0  0  0  0  0
   -0.4867    0.1148   -0.9111 C   0  0  0  0  0  0  0  0  0  0  0  0
   -0.8988    1.0017    0.0402 C   0  0  0  0  0  0  0  0  0  0  0  0
   -2.2424    1.3124    0.2263 C   0  0  0  0  0  0  0  0  0  0  0  0
   -3.1917    0.6870   -0.6112 C   0  0  0  0  0  0  0  0  0  0  0  0
   -2.7609   -0.2414   -1.5926 C   0  0  0  0  0  0  0  0  0  0  0  0
   -1.3937   -0.5311   -1.7543 C   0  0  0  0  0  0  0  0  0  0  0  0
   -4.6567    0.9545   -0.4093 C   0  0  0  0  0  0  0  0  0  0  0  0
   -5.1635    0.0849    0.6612 N   0  0  0  0  0  0  0  0  0  0  0  0
   -6.4798    0.5159    1.1754 C   0  0  0  0  0  0  0  0  0  0  0  0
   -6.7168   -0.0892    2.5719 C   0  0  0  0  0  0  0  0  0  0  0  0
   -7.0116   -1.5945    2.5094 C   0  0  0  0  0  0  0  0  0  0  0  0
   -8.2090   -1.8814    1.5974 C   0  0  0  0  0  0  0  0  0  0  0  0
   -7.9723   -1.3325    0.1862 C   0  0  0  0  0  0  0  0  0  0  0  0
   -7.6499    0.1693    0.2191 C   0  0  0  0  0  0  0  0  0  0  0  0
    0.1523    1.4904    0.7210 N   0  0  0  0  0  0  0  0  0  0  0  0
    1.2051    0.8505    0.1507 C   0  0  0  0  0  0  0  0  0  0  0  0
    2.5534    1.1027    0.5602 N   0  0  0  0  0  0  0  0  0  0  0  0
    3.4325    0.0587    0.9976 C   0  0  0  0  0  0  0  0  0  0  0  0
    2.9728   -1.0905    1.2414 O   0  0  0  0  0  0  0  0  0  0  0  0
    4.8738    0.3094    1.1715 C   0  0  0  0  0  0  0  0  0  0  0  0
    5.5573    1.4831    0.8652 C   0  0  0  0  0  0  0  0  0  0  0  0
    6.9338    1.4056    1.1096 C   0  0  0  0  0  0  0  0  0  0  0  0
    7.3395    0.1661    1.5933 C   0  0  0  0  0  0  0  0  0  0  0  0
    5.9890   -0.8315    1.7135 S   0  0  0  0  0  0  0  0  0  0  0  0
    8.7192   -0.2264    1.9186 C   0  0  0  0  0  0  0  0  0  0  0  0
    9.1775   -1.4911    2.2257 C   0  0  0  0  0  0  0  0  0  0  0  0
   10.5024   -1.4146    2.4400 N   0  0  0  0  0  0  0  0  0  0  0  0
   10.9108   -0.1642    2.2864 N   0  0  0  0  0  0  0  0  0  0  0  0
    9.8382    0.5841    1.9638 C   0  0  0  0  0  0  0  0  0  0  0  0
    0.8479    0.4266   -3.6949 O   0  0  0  0  0  0  0  0  0  0  0  0
    3.1164   -0.3050   -4.9558 H   0  0  0  0  0  0  0  0  0  0  0  0
    2.2747   -1.7502   -4.2902 H   0  0  0  0  0  0  0  0  0  0  0  0
    3.8129   -1.1742   -3.5337 H   0  0  0  0  0  0  0  0  0  0  0  0
    3.7806    1.0481   -2.1341 H   0  0  0  0  0  0  0  0  0  0  0  0
    3.2046    1.8286   -3.6537 H   0  0  0  0  0  0  0  0  0  0  0  0
    2.2644    2.0342   -2.1398 H   0  0  0  0  0  0  0  0  0  0  0  0
    1.2197   -1.6996   -2.0531 H   0  0  0  0  0  0  0  0  0  0  0  0
    2.6651   -1.0355   -1.2778 H   0  0  0  0  0  0  0  0  0  0  0  0
   -2.5451    2.0077    0.9982 H   0  0  0  0  0  0  0  0  0  0  0  0
   -3.4837   -0.7425   -2.2243 H   0  0  0  0  0  0  0  0  0  0  0  0
   -1.0677   -1.2399   -2.5034 H   0  0  0  0  0  0  0  0  0  0  0  0
   -5.2097    0.7684   -1.3571 H   0  0  0  0  0  0  0  0  0  0  0  0
   -4.7876    2.0288   -0.1463 H   0  0  0  0  0  0  0  0  0  0  0  0
   -5.2077   -0.8961    0.3016 H   0  0  0  0  0  0  0  0  0  0  0  0
   -6.4750    1.6208    1.3158 H   0  0  0  0  0  0  0  0  0  0  0  0
   -7.5769    0.4279    3.0527 H   0  0  0  0  0  0  0  0  0  0  0  0
   -5.8236    0.0854    3.2114 H   0  0  0  0  0  0  0  0  0  0  0  0
   -6.1183   -2.1448    2.1428 H   0  0  0  0  0  0  0  0  0  0  0  0
   -7.2369   -1.9618    3.5337 H   0  0  0  0  0  0  0  0  0  0  0  0
   -8.3737   -2.9793    1.5406 H   0  0  0  0  0  0  0  0  0  0  0  0
   -9.1260   -1.4211    2.0290 H   0  0  0  0  0  0  0  0  0  0  0  0
   -8.8890   -1.4918   -0.4210 H   0  0  0  0  0  0  0  0  0  0  0  0
   -7.1508   -1.8948   -0.3067 H   0  0  0  0  0  0  0  0  0  0  0  0
   -7.4311    0.5222   -0.8100 H   0  0  0  0  0  0  0  0  0  0  0  0
   -8.5582    0.7159    0.5575 H   0  0  0  0  0  0  0  0  0  0  0  0
    2.8097    2.0935    0.7694 H   0  0  0  0  0  0  0  0  0  0  0  0
    5.0893    2.3730    0.4669 H   0  0  0  0  0  0  0  0  0  0  0  0
    7.6090    2.2325    0.9283 H   0  0  0  0  0  0  0  0  0  0  0  0
    8.5958   -2.4035    2.2761 H   0  0  0  0  0  0  0  0  0  0  0  0
   11.1297   -2.2110    2.6866 H   0  0  0  0  0  0  0  0  0  0  0  0
    9.8738    1.6504    1.7795 H   0  0  0  0  0  0  0  0  0  0  0  0
    1.0714    0.9613   -4.5013 H   0  0  0  0  0  0  0  0  0  0  0  0
  1  2  1  0
  2  3  1  0
  2  4  1  0
  4  5  1  0
  5  6  1  0
  6  7  2  0
  7  8  1  0
  8  9  2  0
  9 10  1  0
 10 11  2  0
  9 12  1  0
 12 13  1  0
 13 14  1  0
 14 15  1  0
 15 16  1  0
 16 17  1  0
 17 18  1  0
 18 19  1  0
  7 20  1  0
 20 21  2  0
 21 22  1  0
 22 23  1  0
 23 24  2  0
 23 25  1  0
 25 26  2  0
 26 27  1  0
 27 28  2  0
 28 29  1  0
 28 30  1  0
 30 31  2  0
 31 32  1  0
 32 33  1  0
 33 34  2  0
  2 35  1  0
 21  5  1  0
 11  6  1  0
 19 14  1  0
 29 25  1  0
 34 30  1  0
  1 36  1  0
  1 37  1  0
  1 38  1  0
  3 39  1  0
  3 40  1  0
  3 41  1  0
  4 42  1  0
  4 43  1  0
  8 44  1  0
 10 45  1  0
 11 46  1  0
 12 47  1  0
 12 48  1  0
 13 49  1  0
 14 50  1  0
 15 51  1  0
 15 52  1  0
 16 53  1  0
 16 54  1  0
 17 55  1  0
 17 56  1  0
 18 57  1  0
 18 58  1  0
 19 59  1  0
 19 60  1  0
 22 61  1  0
 26 62  1  0
 27 63  1  0
 31 64  1  0
 32 65  1  0
 34 66  1  0
 35 67  1  0
M  END
$$$$
