
     RDKit          3D

 67 72  0  0  0  0  0  0  0  0999 V2000
   -9.7066    2.0470   -1.1380 C   0  0  0  0  0  0  0  0  0  0  0  0
   -9.0489    1.9874    0.0232 C   0  0  0  0  0  0  0  0  0  0  0  0
   -7.5786    1.9102    0.1007 C   0  0  0  0  0  0  0  0  0  0  0  0
   -6.8849    1.9416   -0.9545 O   0  0  0  0  0  0  0  0  0  0  0  0
   -6.9434    1.8601    1.3872 N   0  0  0  0  0  0  0  0  0  0  0  0
   -5.5609    1.5142    1.5982 C   0  0  0  0  0  0  0  0  0  0  0  0
   -4.8915    0.6057    0.7567 C   0  0  0  0  0  0  0  0  0  0  0  0
   -3.5530    0.2649    0.9889 C   0  0  0  0  0  0  0  0  0  0  0  0
   -2.8934    0.7947    2.1140 C   0  0  0  0  0  0  0  0  0  0  0  0
   -3.5573    1.6821    2.9625 C   0  0  0  0  0  0  0  0  0  0  0  0
   -4.8820    2.0413    2.7070 C   0  0  0  0  0  0  0  0  0  0  0  0
   -2.9413   -0.6326    0.1015 O   0  0  0  0  0  0  0  0  0  0  0  0
   -1.5795   -0.6903   -0.2214 C   0  0  0  0  0  0  0  0  0  0  0  0
   -0.6900    0.2448    0.2272 N   0  0  0  0  0  0  0  0  0  0  0  0
    0.6482    0.1697   -0.0581 C   0  0  0  0  0  0  0  0  0  0  0  0
    1.1246   -0.8509   -0.8340 N   0  0  0  0  0  0  0  0  0  0  0  0
    0.2492   -1.7725   -1.3014 C   0  0  0  0  0  0  0  0  0  0  0  0
   -1.0873   -1.7080   -1.0349 C   0  0  0  0  0  0  0  0  0  0  0  0
   -1.6694   -2.7962   -1.6665 C   0  0  0  0  0  0  0  0  0  0  0  0
   -0.6152   -3.4777   -2.2763 C   0  0  0  0  0  0  0  0  0  0  0  0
    0.5568   -2.8406   -2.0526 N   0  0  0  0  0  0  0  0  0  0  0  0
   -3.0965   -3.1676   -1.7328 C   0  0  0  0  0  0  0  0  0  0  0  0
   -4.0722   -2.2136   -2.0581 C   0  0  0  0  0  0  0  0  0  0  0  0
   -5.4157   -2.5932   -2.1138 C   0  0  0  0  0  0  0  0  0  0  0  0
   -5.7699   -3.8833   -1.8731 N   0  0  0  0  0  0  0  0  0  0  0  0
   -4.8434   -4.8337   -1.5817 C   0  0  0  0  0  0  0  0  0  0  0  0
   -3.4887   -4.4958   -1.5144 C   0  0  0  0  0  0  0  0  0  0  0  0
    1.5266    1.1902    0.4357 N   0  0  0  0  0  0  0  0  0  0  0  0
    2.9620    1.1074    0.4299 C   0  0  0  0  0  0  0  0  0  0  0  0
    3.7142    2.2799    0.2750 C   0  0  0  0  0  0  0  0  0  0  0  0
    5.1096    2.2377    0.3053 C   0  0  0  0  0  0  0  0  0  0  0  0
    5.7818    1.0211    0.5049 C   0  0  0  0  0  0  0  0  0  0  0  0
    5.0284   -0.1521    0.6776 C   0  0  0  0  0  0  0  0  0  0  0  0
    3.6306   -0.1077    0.6541 C   0  0  0  0  0  0  0  0  0  0  0  0
    7.2228    0.9754    0.5183 N   0  0  0  0  0  0  0  0  0  0  0  0
    7.9627    1.9082    1.3800 C   0  0  0  0  0  0  0  0  0  0  0  0
    9.4645    1.6956    1.2430 C   0  0  0  0  0  0  0  0  0  0  0  0
    9.7818    1.5525   -0.1222 O   0  0  0  0  0  0  0  0  0  0  0  0
    9.3872    0.2712   -0.5699 C   0  0  0  0  0  0  0  0  0  0  0  0
    7.9148   -0.0826   -0.2371 C   0  0  0  0  0  0  0  0  0  0  0  0
   -9.1842    2.0297   -2.0856 H   0  0  0  0  0  0  0  0  0  0  0  0
  -10.7881    2.1052   -1.1446 H   0  0  0  0  0  0  0  0  0  0  0  0
   -9.6171    2.0009    0.9445 H   0  0  0  0  0  0  0  0  0  0  0  0
   -7.5034    2.1724    2.2126 H   0  0  0  0  0  0  0  0  0  0  0  0
   -5.4075    0.1390   -0.0731 H   0  0  0  0  0  0  0  0  0  0  0  0
   -1.8876    0.4969    2.3707 H   0  0  0  0  0  0  0  0  0  0  0  0
   -3.0448    2.0837    3.8281 H   0  0  0  0  0  0  0  0  0  0  0  0
   -5.3822    2.7285    3.3792 H   0  0  0  0  0  0  0  0  0  0  0  0
   -0.7032   -4.3795   -2.8683 H   0  0  0  0  0  0  0  0  0  0  0  0
    1.5014   -3.1229   -2.3963 H   0  0  0  0  0  0  0  0  0  0  0  0
   -3.7958   -1.1906   -2.2802 H   0  0  0  0  0  0  0  0  0  0  0  0
   -6.1776   -1.8623   -2.3515 H   0  0  0  0  0  0  0  0  0  0  0  0
   -5.1599   -5.8511   -1.3960 H   0  0  0  0  0  0  0  0  0  0  0  0
   -2.7556   -5.2576   -1.2766 H   0  0  0  0  0  0  0  0  0  0  0  0
    1.0874    2.0776    0.7721 H   0  0  0  0  0  0  0  0  0  0  0  0
    3.2171    3.2277    0.1157 H   0  0  0  0  0  0  0  0  0  0  0  0
    5.6606    3.1556    0.1512 H   0  0  0  0  0  0  0  0  0  0  0  0
    5.5223   -1.0978    0.8579 H   0  0  0  0  0  0  0  0  0  0  0  0
    3.0758   -1.0164    0.8408 H   0  0  0  0  0  0  0  0  0  0  0  0
    7.6600    1.7624    2.4401 H   0  0  0  0  0  0  0  0  0  0  0  0
    7.7349    2.9525    1.0812 H   0  0  0  0  0  0  0  0  0  0  0  0
    9.9971    2.5843    1.6431 H   0  0  0  0  0  0  0  0  0  0  0  0
    9.7975    0.8185    1.8460 H   0  0  0  0  0  0  0  0  0  0  0  0
    9.5184    0.2418   -1.6752 H   0  0  0  0  0  0  0  0  0  0  0  0
   10.0753   -0.5043   -0.1578 H   0  0  0  0  0  0  0  0  0  0  0  0
    7.3678   -0.2770   -1.1881 H   0  0  0  0  0  0  0  0  0  0  0  0
    7.8953   -1.0217    0.3594 H   0  0  0  0  0  0  0  0  0  0  0  0
  1  2  2  0
  2  3  1  0
  3  4  2  0
  3  5  1  0
  5  6  1  0
  6  7  2  0
  7  8  1  0
  8  9  2  0
  9 10  1  0
 10 11  2  0
  8 12  1  0
 12 13  1  0
 13 14  2  0
 14 15  1  0
 15 16  2  0
 16 17  1  0
 17 18  2  0
 18 19  1  0
 19 20  2  0
 20 21  1  0
 19 22  1  0
 22 23  2  0
 23 24  1  0
 24 25  2  0
 25 26  1  0
 26 27  2  0
 15 28  1  0
 28 29  1  0
 29 30  2  0
 30 31  1  0
 31 32  2  0
 32 33  1  0
 33 34  2  0
 32 35  1  0
 35 36  1  0
 36 37  1  0
 37 38  1  0
 38 39  1  0
 39 40  1  0
 11  6  1  0
 18 13  1  0
 21 17  1  0
 27 22  1  0
 34 29  1  0
 40 35  1  0
  1 41  1  0
  1 42  1  0
  2 43  1  0
  5 44  1  0
  7 45  1  0
  9 46  1  0
 10 47  1  0
 11 48  1  0
 20 49  1  0
 21 50  1  0
 23 51  1  0
 24 52  1  0
 26 53  1  0
 27 54  1  0
 28 55  1  0
 30 56  1  0
 31 57  1  0
 33 58  1  0
 34 59  1  0
 36 60  1  0
 36 61  1  0
 37 62  1  0
 37 63  1  0
 39 64  1  0
 39 65  1  0
 40 66  1  0
 40 67  1  0
M  END
$$$$
