
     RDKit          3D

 66 70  0  0  0  0  0  0  0  0999 V2000
    2.1192   -4.2724   -1.0288 C   0  0  0  0  0  0  0  0  0  0  0  0
    1.6000   -2.8712   -1.4058 C   0  0  0  0  0  0  0  0  0  0  0  0
    2.7382   -2.0625   -2.0623 C   0  0  0  0  0  0  0  0  0  0  0  0
    1.0985   -2.1642   -0.1216 C   0  0  0  0  0  0  0  0  0  0  0  0
    0.4908   -0.8557   -0.4073 N   0  0  0  0  0  0  0  0  0  0  0  0
   -0.7640   -0.6111   -0.8277 C   0  0  0  0  0  0  0  0  0  0  0  0
   -0.8821    0.7135   -1.1340 C   0  0  0  0  0  0  0  0  0  0  0  0
   -2.0708    1.2570   -1.6122 C   0  0  0  0  0  0  0  0  0  0  0  0
   -3.1823    0.3978   -1.7654 C   0  0  0  0  0  0  0  0  0  0  0  0
   -3.0518   -0.9800   -1.4488 C   0  0  0  0  0  0  0  0  0  0  0  0
   -1.8326   -1.4968   -0.9755 C   0  0  0  0  0  0  0  0  0  0  0  0
   -4.5021    0.9438   -2.2697 C   0  0  0  0  0  0  0  0  0  0  0  0
   -5.3861    1.4524   -1.1952 N   0  0  0  0  0  0  0  0  0  0  0  0
   -4.8124    2.6267   -0.5135 C   0  0  0  0  0  0  0  0  0  0  0  0
   -5.7759    0.3966   -0.2378 C   0  0  0  0  0  0  0  0  0  0  0  0
   -7.0165    0.7982    0.5147 C   0  0  0  0  0  0  0  0  0  0  0  0
   -8.2638    0.8048   -0.1266 C   0  0  0  0  0  0  0  0  0  0  0  0
   -9.3788    1.1919    0.5490 N   0  0  0  0  0  0  0  0  0  0  0  0
   -9.3261    1.5850    1.8491 C   0  0  0  0  0  0  0  0  0  0  0  0
   -8.1051    1.6022    2.5253 C   0  0  0  0  0  0  0  0  0  0  0  0
   -6.9459    1.2085    1.8540 C   0  0  0  0  0  0  0  0  0  0  0  0
    0.2805    1.3552   -0.9238 N   0  0  0  0  0  0  0  0  0  0  0  0
    1.0904    0.3669   -0.4654 C   0  0  0  0  0  0  0  0  0  0  0  0
    2.4610    0.6076   -0.1301 N   0  0  0  0  0  0  0  0  0  0  0  0
    2.9906    0.3281    1.1731 C   0  0  0  0  0  0  0  0  0  0  0  0
    2.2154   -0.0062    2.1103 O   0  0  0  0  0  0  0  0  0  0  0  0
    4.4336    0.4529    1.4382 C   0  0  0  0  0  0  0  0  0  0  0  0
    5.0517    0.2625    2.6704 C   0  0  0  0  0  0  0  0  0  0  0  0
    6.4389    0.4484    2.6325 C   0  0  0  0  0  0  0  0  0  0  0  0
    6.9161    0.7821    1.3689 C   0  0  0  0  0  0  0  0  0  0  0  0
    5.6146    0.8444    0.3029 S   0  0  0  0  0  0  0  0  0  0  0  0
    8.3188    1.0486    1.0147 C   0  0  0  0  0  0  0  0  0  0  0  0
    9.4151    1.0396    1.8522 C   0  0  0  0  0  0  0  0  0  0  0  0
   10.5016    1.3472    1.1229 N   0  0  0  0  0  0  0  0  0  0  0  0
   10.1523    1.5517   -0.1377 N   0  0  0  0  0  0  0  0  0  0  0  0
    8.8198    1.3753   -0.2309 C   0  0  0  0  0  0  0  0  0  0  0  0
    0.5247   -3.0001   -2.3052 O   0  0  0  0  0  0  0  0  0  0  0  0
    2.9462   -4.1988   -0.2896 H   0  0  0  0  0  0  0  0  0  0  0  0
    1.3009   -4.8819   -0.5884 H   0  0  0  0  0  0  0  0  0  0  0  0
    2.5000   -4.8046   -1.9270 H   0  0  0  0  0  0  0  0  0  0  0  0
    3.5491   -1.8572   -1.3308 H   0  0  0  0  0  0  0  0  0  0  0  0
    3.1732   -2.6237   -2.9166 H   0  0  0  0  0  0  0  0  0  0  0  0
    2.3546   -1.0991   -2.4576 H   0  0  0  0  0  0  0  0  0  0  0  0
    0.3493   -2.8062    0.3907 H   0  0  0  0  0  0  0  0  0  0  0  0
    1.9393   -2.0518    0.5913 H   0  0  0  0  0  0  0  0  0  0  0  0
   -2.1338    2.3101   -1.8567 H   0  0  0  0  0  0  0  0  0  0  0  0
   -3.8931   -1.6503   -1.5712 H   0  0  0  0  0  0  0  0  0  0  0  0
   -1.7378   -2.5472   -0.7350 H   0  0  0  0  0  0  0  0  0  0  0  0
   -4.3115    1.7543   -3.0075 H   0  0  0  0  0  0  0  0  0  0  0  0
   -5.0374    0.1551   -2.8430 H   0  0  0  0  0  0  0  0  0  0  0  0
   -4.4568    3.3742   -1.2551 H   0  0  0  0  0  0  0  0  0  0  0  0
   -5.5914    3.1272    0.0987 H   0  0  0  0  0  0  0  0  0  0  0  0
   -3.9689    2.3395    0.1510 H   0  0  0  0  0  0  0  0  0  0  0  0
   -6.0067   -0.5479   -0.7797 H   0  0  0  0  0  0  0  0  0  0  0  0
   -4.9434    0.1696    0.4665 H   0  0  0  0  0  0  0  0  0  0  0  0
   -8.3485    0.5036   -1.1627 H   0  0  0  0  0  0  0  0  0  0  0  0
  -10.2324    1.8877    2.3566 H   0  0  0  0  0  0  0  0  0  0  0  0
   -8.0574    1.9201    3.5589 H   0  0  0  0  0  0  0  0  0  0  0  0
   -5.9970    1.2286    2.3739 H   0  0  0  0  0  0  0  0  0  0  0  0
    3.0178    1.2013   -0.7836 H   0  0  0  0  0  0  0  0  0  0  0  0
    4.5183   -0.0002    3.5748 H   0  0  0  0  0  0  0  0  0  0  0  0
    7.0691    0.3415    3.5057 H   0  0  0  0  0  0  0  0  0  0  0  0
    9.4259    0.8300    2.9135 H   0  0  0  0  0  0  0  0  0  0  0  0
   11.4799    1.4194    1.4800 H   0  0  0  0  0  0  0  0  0  0  0  0
    8.2543    1.4804   -1.1472 H   0  0  0  0  0  0  0  0  0  0  0  0
    0.8626   -3.4426   -3.1279 H   0  0  0  0  0  0  0  0  0  0  0  0
  1  2  1  0
  2  3  1  0
  2  4  1  0
  4  5  1  0
  5  6  1  0
  6  7  2  0
  7  8  1  0
  8  9  2  0
  9 10  1  0
 10 11  2  0
  9 12  1  0
 12 13  1  0
 13 14  1  0
 13 15  1  0
 15 16  1  0
 16 17  2  0
 17 18  1  0
 18 19  2  0
 19 20  1  0
 20 21  2  0
  7 22  1  0
 22 23  2  0
 23 24  1  0
 24 25  1  0
 25 26  2  0
 25 27  1  0
 27 28  2  0
 28 29  1  0
 29 30  2  0
 30 31  1  0
 30 32  1  0
 32 33  2  0
 33 34  1  0
 34 35  1  0
 35 36  2  0
  2 37  1  0
 23  5  1  0
 11  6  1  0
 21 16  1  0
 31 27  1  0
 36 32  1  0
  1 38  1  0
  1 39  1  0
  1 40  1  0
  3 41  1  0
  3 42  1  0
  3 43  1  0
  4 44  1  0
  4 45  1  0
  8 46  1  0
 10 47  1  0
 11 48  1  0
 12 49  1  0
 12 50  1  0
 14 51  1  0
 14 52  1  0
 14 53  1  0
 15 54  1  0
 15 55  1  0
 17 56  1  0
 19 57  1  0
 20 58  1  0
 21 59  1  0
 24 60  1  0
 28 61  1  0
 29 62  1  0
 33 63  1  0
 34 64  1  0
 36 65  1  0
 37 66  1  0
M  END
$$$$
