
     RDKit          3D

 64 68  0  0  0  0  0  0  0  0999 V2000
   -1.6321   -3.9305   -0.3266 C   0  0  0  0  0  0  0  0  0  0  0  0
   -1.0987   -2.5103   -0.5733 C   0  0  0  0  0  0  0  0  0  0  0  0
   -1.9860   -1.8328   -1.6419 C   0  0  0  0  0  0  0  0  0  0  0  0
   -1.1318   -1.7287    0.7680 C   0  0  0  0  0  0  0  0  0  0  0  0
   -0.5376   -0.3882    0.6579 N   0  0  0  0  0  0  0  0  0  0  0  0
    0.7613   -0.0545    0.7679 C   0  0  0  0  0  0  0  0  0  0  0  0
    0.9066    1.2714    0.4773 C   0  0  0  0  0  0  0  0  0  0  0  0
    2.1484    1.8998    0.5028 C   0  0  0  0  0  0  0  0  0  0  0  0
    3.2774    1.1254    0.8498 C   0  0  0  0  0  0  0  0  0  0  0  0
    3.1223   -0.2541    1.1438 C   0  0  0  0  0  0  0  0  0  0  0  0
    1.8531   -0.8579    1.1020 C   0  0  0  0  0  0  0  0  0  0  0  0
    4.6403    1.7625    0.8756 C   0  0  0  0  0  0  0  0  0  0  0  0
    5.0978    2.0565   -0.4900 N   0  0  0  0  0  0  0  0  0  0  0  0
    5.6205    0.8667   -1.1843 C   0  0  0  0  0  0  0  0  0  0  0  0
    6.9871    0.4651   -0.6794 C   0  0  0  0  0  0  0  0  0  0  0  0
    7.1400   -0.6558    0.1542 C   0  0  0  0  0  0  0  0  0  0  0  0
    8.4060   -1.0137    0.6280 C   0  0  0  0  0  0  0  0  0  0  0  0
    9.5271   -0.2582    0.2724 C   0  0  0  0  0  0  0  0  0  0  0  0
    9.3836    0.8576   -0.5562 C   0  0  0  0  0  0  0  0  0  0  0  0
    8.1191    1.2200   -1.0311 C   0  0  0  0  0  0  0  0  0  0  0  0
   -0.2812    1.8254    0.1766 N   0  0  0  0  0  0  0  0  0  0  0  0
   -1.1406    0.7833    0.3130 C   0  0  0  0  0  0  0  0  0  0  0  0
   -2.5464    0.9260    0.0883 N   0  0  0  0  0  0  0  0  0  0  0  0
   -3.5086    0.6818    1.1234 C   0  0  0  0  0  0  0  0  0  0  0  0
   -3.1220    0.4449    2.3005 O   0  0  0  0  0  0  0  0  0  0  0  0
   -4.9514    0.7294    0.8324 C   0  0  0  0  0  0  0  0  0  0  0  0
   -5.9715    0.6102    1.7723 C   0  0  0  0  0  0  0  0  0  0  0  0
   -7.2528    0.6938    1.2155 C   0  0  0  0  0  0  0  0  0  0  0  0
   -7.2439    0.8721   -0.1649 C   0  0  0  0  0  0  0  0  0  0  0  0
   -5.6452    0.9223   -0.6895 S   0  0  0  0  0  0  0  0  0  0  0  0
   -8.4264    1.0195   -1.0272 C   0  0  0  0  0  0  0  0  0  0  0  0
   -9.7501    1.0585   -0.6416 C   0  0  0  0  0  0  0  0  0  0  0  0
  -10.5020    1.2405   -1.7417 N   0  0  0  0  0  0  0  0  0  0  0  0
   -9.7238    1.3182   -2.8096 N   0  0  0  0  0  0  0  0  0  0  0  0
   -8.4467    1.1861   -2.3994 C   0  0  0  0  0  0  0  0  0  0  0  0
    0.2262   -2.6311   -1.0369 O   0  0  0  0  0  0  0  0  0  0  0  0
   -1.6076   -4.5221   -1.2669 H   0  0  0  0  0  0  0  0  0  0  0  0
   -2.6792   -3.9010    0.0468 H   0  0  0  0  0  0  0  0  0  0  0  0
   -1.0022   -4.4561    0.4236 H   0  0  0  0  0  0  0  0  0  0  0  0
   -1.5990   -0.8259   -1.9011 H   0  0  0  0  0  0  0  0  0  0  0  0
   -3.0307   -1.7281   -1.2763 H   0  0  0  0  0  0  0  0  0  0  0  0
   -1.9952   -2.4365   -2.5746 H   0  0  0  0  0  0  0  0  0  0  0  0
   -0.5861   -2.3028    1.5480 H   0  0  0  0  0  0  0  0  0  0  0  0
   -2.1791   -1.6543    1.1237 H   0  0  0  0  0  0  0  0  0  0  0  0
    2.2398    2.9523    0.2645 H   0  0  0  0  0  0  0  0  0  0  0  0
    3.9824   -0.8585    1.4015 H   0  0  0  0  0  0  0  0  0  0  0  0
    1.7390   -1.9099    1.3242 H   0  0  0  0  0  0  0  0  0  0  0  0
    5.3737    1.1313    1.4246 H   0  0  0  0  0  0  0  0  0  0  0  0
    4.5663    2.7159    1.4446 H   0  0  0  0  0  0  0  0  0  0  0  0
    5.8467    2.7870   -0.4425 H   0  0  0  0  0  0  0  0  0  0  0  0
    5.6967    1.0988   -2.2683 H   0  0  0  0  0  0  0  0  0  0  0  0
    4.9035    0.0203   -1.1064 H   0  0  0  0  0  0  0  0  0  0  0  0
    6.2810   -1.2514    0.4372 H   0  0  0  0  0  0  0  0  0  0  0  0
    8.5174   -1.8776    1.2700 H   0  0  0  0  0  0  0  0  0  0  0  0
   10.5064   -0.5366    0.6401 H   0  0  0  0  0  0  0  0  0  0  0  0
   10.2519    1.4420   -0.8317 H   0  0  0  0  0  0  0  0  0  0  0  0
    8.0207    2.0870   -1.6726 H   0  0  0  0  0  0  0  0  0  0  0  0
   -2.8472    1.4388   -0.7700 H   0  0  0  0  0  0  0  0  0  0  0  0
   -5.7982    0.4800    2.8321 H   0  0  0  0  0  0  0  0  0  0  0  0
   -8.1551    0.6312    1.8088 H   0  0  0  0  0  0  0  0  0  0  0  0
  -10.1410    0.9749    0.3633 H   0  0  0  0  0  0  0  0  0  0  0  0
  -11.5429    1.3164   -1.7672 H   0  0  0  0  0  0  0  0  0  0  0  0
   -7.5888    1.2193   -3.0581 H   0  0  0  0  0  0  0  0  0  0  0  0
    0.5091   -1.7551   -1.4077 H   0  0  0  0  0  0  0  0  0  0  0  0
  1  2  1  0
  2  3  1  0
  2  4  1  0
  4  5  1  0
  5  6  1  0
  6  7  2  0
  7  8  1  0
  8  9  2  0
  9 10  1  0
 10 11  2  0
  9 12  1  0
 12 13  1  0
 13 14  1  0
 14 15  1  0
 15 16  2  0
 16 17  1  0
 17 18  2  0
 18 19  1  0
 19 20  2  0
  7 21  1  0
 21 22  2  0
 22 23  1  0
 23 24  1  0
 24 25  2  0
 24 26  1  0
 26 27  2  0
 27 28  1  0
 28 29  2  0
 29 30  1  0
 29 31  1  0
 31 32  2  0
 32 33  1  0
 33 34  1  0
 34 35  2  0
  2 36  1  0
 22  5  1  0
 11  6  1  0
 20 15  1  0
 30 26  1  0
 35 31  1  0
  1 37  1  0
  1 38  1  0
  1 39  1  0
  3 40  1  0
  3 41  1  0
  3 42  1  0
  4 43  1  0
  4 44  1  0
  8 45  1  0
 10 46  1  0
 11 47  1  0
 12 48  1  0
 12 49  1  0
 13 50  1  0
 14 51  1  0
 14 52  1  0
 16 53  1  0
 17 54  1  0
 18 55  1  0
 19 56  1  0
 20 57  1  0
 23 58  1  0
 27 59  1  0
 28 60  1  0
 32 61  1  0
 33 62  1  0
 35 63  1  0
 36 64  1  0
M  END
$$$$
