
     RDKit          3D

 73 76  0  0  0  0  0  0  0  0999 V2000
    3.8453   -0.4440    1.8917 C   0  0  0  0  0  0  0  0  0  0  0  0
    5.0116   -0.0787    0.9452 C   0  0  0  0  0  0  0  0  0  0  0  0
    6.4064    0.0137    1.6597 C   0  0  0  0  0  0  0  0  0  0  0  0
    7.4667    0.4769    0.6328 C   0  0  0  0  0  0  0  0  0  0  0  0
    6.3766    1.0523    2.8050 C   0  0  0  0  0  0  0  0  0  0  0  0
    6.8452   -1.3523    2.2347 C   0  0  0  0  0  0  0  0  0  0  0  0
    5.0883   -1.0406   -0.1802 N   0  0  0  0  0  0  0  0  0  0  0  0
    4.5569   -0.5178   -1.4486 C   0  0  0  0  0  0  0  0  0  0  0  0
    3.0558   -0.3833   -1.4176 C   0  0  0  0  0  0  0  0  0  0  0  0
    2.4565    0.8908   -1.3032 C   0  0  0  0  0  0  0  0  0  0  0  0
    1.0671    0.9566   -1.2444 C   0  0  0  0  0  0  0  0  0  0  0  0
    0.2873   -0.1626   -1.2896 C   0  0  0  0  0  0  0  0  0  0  0  0
    0.8397   -1.4388   -1.3997 C   0  0  0  0  0  0  0  0  0  0  0  0
    2.2404   -1.5428   -1.4649 C   0  0  0  0  0  0  0  0  0  0  0  0
   -1.0054    0.1968   -1.1964 N   0  0  0  0  0  0  0  0  0  0  0  0
   -0.9531    1.5564   -1.1103 C   0  0  0  0  0  0  0  0  0  0  0  0
    0.3083    2.0593   -1.1195 N   0  0  0  0  0  0  0  0  0  0  0  0
   -2.1019    2.3960   -0.9466 N   0  0  0  0  0  0  0  0  0  0  0  0
   -3.2093    2.3601   -1.8575 C   0  0  0  0  0  0  0  0  0  0  0  0
   -3.0642    1.8530   -3.0034 O   0  0  0  0  0  0  0  0  0  0  0  0
   -4.5206    2.9017   -1.4667 C   0  0  0  0  0  0  0  0  0  0  0  0
   -4.8762    3.3827   -0.2085 C   0  0  0  0  0  0  0  0  0  0  0  0
   -6.2158    3.7803   -0.1255 C   0  0  0  0  0  0  0  0  0  0  0  0
   -6.9116    3.6156   -1.3167 C   0  0  0  0  0  0  0  0  0  0  0  0
   -5.8744    2.9586   -2.4659 S   0  0  0  0  0  0  0  0  0  0  0  0
   -8.3607    3.9074   -1.5304 C   0  0  0  0  0  0  0  0  0  0  0  0
   -8.6407    5.2024   -1.1328 F   0  0  0  0  0  0  0  0  0  0  0  0
   -9.1247    3.0244   -0.7910 F   0  0  0  0  0  0  0  0  0  0  0  0
   -2.1683   -0.6901   -1.0554 C   0  0  0  0  0  0  0  0  0  0  0  0
   -2.2479   -1.3206    0.3524 C   0  0  0  0  0  0  0  0  0  0  0  0
   -2.4202   -0.2735    1.4598 C   0  0  0  0  0  0  0  0  0  0  0  0
   -3.9206   -0.1910    1.7098 C   0  0  0  0  0  0  0  0  0  0  0  0
   -4.4707   -1.5470    1.2939 C   0  0  0  0  0  0  0  0  0  0  0  0
   -3.4470   -2.1498    0.4516 N   0  0  0  0  0  0  0  0  0  0  0  0
   -3.6479   -3.4227   -0.1972 C   0  0  0  0  0  0  0  0  0  0  0  0
   -4.7937   -3.9500   -0.1718 O   0  0  0  0  0  0  0  0  0  0  0  0
   -2.5409   -4.1277   -0.8789 C   0  0  0  0  0  0  0  0  0  0  0  0
   -2.7406   -5.2120   -1.6246 C   0  0  0  0  0  0  0  0  0  0  0  0
    3.7330    0.3063    2.7008 H   0  0  0  0  0  0  0  0  0  0  0  0
    2.8878   -0.4495    1.3305 H   0  0  0  0  0  0  0  0  0  0  0  0
    3.9799   -1.4523    2.3359 H   0  0  0  0  0  0  0  0  0  0  0  0
    4.7829    0.9441    0.5647 H   0  0  0  0  0  0  0  0  0  0  0  0
    7.5804   -0.2645   -0.1876 H   0  0  0  0  0  0  0  0  0  0  0  0
    7.1763    1.4524    0.1854 H   0  0  0  0  0  0  0  0  0  0  0  0
    8.4613    0.6000    1.1145 H   0  0  0  0  0  0  0  0  0  0  0  0
    5.7462    0.7071    3.6510 H   0  0  0  0  0  0  0  0  0  0  0  0
    7.3984    1.2166    3.2115 H   0  0  0  0  0  0  0  0  0  0  0  0
    5.9890    2.0282    2.4410 H   0  0  0  0  0  0  0  0  0  0  0  0
    6.8791   -2.1279    1.4409 H   0  0  0  0  0  0  0  0  0  0  0  0
    7.8593   -1.2779    2.6825 H   0  0  0  0  0  0  0  0  0  0  0  0
    6.1564   -1.6931    3.0346 H   0  0  0  0  0  0  0  0  0  0  0  0
    4.6393   -1.9583    0.0510 H   0  0  0  0  0  0  0  0  0  0  0  0
    5.0430    0.4509   -1.6985 H   0  0  0  0  0  0  0  0  0  0  0  0
    4.8354   -1.2187   -2.2650 H   0  0  0  0  0  0  0  0  0  0  0  0
    3.0523    1.7933   -1.2527 H   0  0  0  0  0  0  0  0  0  0  0  0
    0.2206   -2.3230   -1.4386 H   0  0  0  0  0  0  0  0  0  0  0  0
    2.6941   -2.5222   -1.5463 H   0  0  0  0  0  0  0  0  0  0  0  0
   -2.0328    3.1908   -0.2735 H   0  0  0  0  0  0  0  0  0  0  0  0
   -4.1996    3.4315    0.6341 H   0  0  0  0  0  0  0  0  0  0  0  0
   -6.6633    4.1673    0.7806 H   0  0  0  0  0  0  0  0  0  0  0  0
   -8.6172    3.7976   -2.6050 H   0  0  0  0  0  0  0  0  0  0  0  0
   -3.1084   -0.1434   -1.2569 H   0  0  0  0  0  0  0  0  0  0  0  0
   -2.1012   -1.4922   -1.8204 H   0  0  0  0  0  0  0  0  0  0  0  0
   -1.3390   -1.9226    0.5636 H   0  0  0  0  0  0  0  0  0  0  0  0
   -1.9249   -0.6423    2.3864 H   0  0  0  0  0  0  0  0  0  0  0  0
   -1.9960    0.7211    1.2178 H   0  0  0  0  0  0  0  0  0  0  0  0
   -4.3589    0.6022    1.0653 H   0  0  0  0  0  0  0  0  0  0  0  0
   -4.1445    0.0323    2.7759 H   0  0  0  0  0  0  0  0  0  0  0  0
   -5.4190   -1.4252    0.7260 H   0  0  0  0  0  0  0  0  0  0  0  0
   -4.6413   -2.1862    2.1875 H   0  0  0  0  0  0  0  0  0  0  0  0
   -1.5308   -3.7618   -0.7792 H   0  0  0  0  0  0  0  0  0  0  0  0
   -3.7303   -5.6251   -1.7710 H   0  0  0  0  0  0  0  0  0  0  0  0
   -1.9029   -5.6949   -2.1103 H   0  0  0  0  0  0  0  0  0  0  0  0
  1  2  1  0
  2  3  1  0
  3  4  1  0
  3  5  1  0
  3  6  1  0
  2  7  1  0
  7  8  1  0
  8  9  1  0
  9 10  2  0
 10 11  1  0
 11 12  2  0
 12 13  1  0
 13 14  2  0
 12 15  1  0
 15 16  1  0
 16 17  2  0
 16 18  1  0
 18 19  1  0
 19 20  2  0
 19 21  1  0
 21 22  2  0
 22 23  1  0
 23 24  2  0
 24 25  1  0
 24 26  1  0
 26 27  1  0
 26 28  1  0
 15 29  1  0
 29 30  1  0
 30 31  1  0
 31 32  1  0
 32 33  1  0
 33 34  1  0
 34 35  1  0
 35 36  2  0
 35 37  1  0
 37 38  2  0
 14  9  1  0
 17 11  1  0
 25 21  1  0
 34 30  1  0
  1 39  1  0
  1 40  1  0
  1 41  1  0
  2 42  1  0
  4 43  1  0
  4 44  1  0
  4 45  1  0
  5 46  1  0
  5 47  1  0
  5 48  1  0
  6 49  1  0
  6 50  1  0
  6 51  1  0
  7 52  1  0
  8 53  1  0
  8 54  1  0
 10 55  1  0
 13 56  1  0
 14 57  1  0
 18 58  1  0
 22 59  1  0
 23 60  1  0
 26 61  1  0
 29 62  1  0
 29 63  1  0
 30 64  1  0
 31 65  1  0
 31 66  1  0
 32 67  1  0
 32 68  1  0
 33 69  1  0
 33 70  1  0
 37 71  1  0
 38 72  1  0
 38 73  1  0
M  END
$$$$
